*Heading
** Job name: Job-1 Model name: rectangle_hole_hex8
** Generated by: Abaqus/CAE 2020
*Preprint, echo=NO, model=NO, history=NO, contact=NO
**
** PARTS
**
*Part, name=PART-1
*Node
      1,  0.800000012,  0.800000012,  0.100000001
      2,  0.800000012,           0.,  0.100000001
      3,          2.5,           0.,  0.100000001
      4,          2.5,  0.800000012,  0.100000001
      5,  0.800000012,           0.,           0.
      6,          2.5,           0.,           0.
      7,          2.5,  0.800000012,           0.
      8,  0.800000012,  0.800000012,           0.
      9,  0.800000012,          2.5,           0.
     10,          2.5,          2.5,           0.
     11,  0.800000012,          2.5,  0.100000001
     12,          2.5,          2.5,  0.100000001
     13,           0.,  0.800000012,           0.
     14,           0.,          2.5,           0.
     15,           0.,  0.800000012,  0.100000001
     16,           0.,          2.5,  0.100000001
     17,  0.282842726,  0.282842726,           0.
     18,  0.400000006,           0.,           0.
     19,  0.282842726,  0.282842726,  0.100000001
     20,  0.400000006,           0.,  0.100000001
** ... 328 like lines cut
*Element, type=C3D8
  1,   8,  44, 175,  54,   1,  23, 155,  40
  2,  44,  43, 176, 175,  23,  24, 156, 155
  3,  43,  42, 177, 176,  24,  25, 157, 156
  4,  42,  41, 178, 177,  25,  26, 158, 157
  5,  41,   5,  49, 178,  26,   2,  27, 158
  6,  54, 175, 179,  55,  40, 155, 159,  39
  7, 175, 176, 180, 179, 155, 156, 160, 159
  8, 176, 177, 181, 180, 156, 157, 161, 160
  9, 177, 178, 182, 181, 157, 158, 162, 161
 10, 178,  49,  48, 182, 158,  27,  28, 162
 11,  55, 179, 183,  56,  39, 159, 163,  38
 12, 179, 180, 184, 183, 159, 160, 164, 163
 13, 180, 181, 185, 184, 160, 161, 165, 164
 14, 181, 182, 186, 185, 161, 162, 166, 165
 15, 182,  48,  47, 186, 162,  28,  29, 166
 16,  56, 183, 187,  57,  38, 163, 167,  37
 17, 183, 184, 188, 187, 163, 164, 168, 167
 18, 184, 185, 189, 188, 164, 165, 169, 168
 19, 185, 186, 190, 189, 165, 166, 170, 169
 20, 186,  47,  46, 190, 166,  29,  30, 170
** ... 126 like lines cut
*Nset, nset=_PICKEDSET29, internal, generate
   1,  348,    1
*Elset, elset=_PICKEDSET29, internal, generate
   1,  146,    1
*Nset, nset=NSET-X0
  13,  14,  15,  16,  21,  22,  93,  94,  95,  96,  97, 106, 107, 108, 109, 110
 143, 144, 145, 146, 147, 148, 149, 150
*Nset, nset=NSET-Y0
   2,   3,   5,   6,  18,  20,  27,  28,  29,  30,  31,  45,  46,  47,  48,  49
 119, 120, 121, 122, 135, 136, 137, 138
*Nset, nset=SET-X1
  3,  4,  6,  7, 10, 12, 32, 33, 34, 35, 50, 51, 52, 53, 69, 70
 71, 72, 73, 84, 85, 86, 87, 88
*Nset, nset=NSET-Z0
   5,   6,   7,   8,   9,  10,  13,  14,  17,  18,  21,  41,  42,  43,  44,  45
  46,  47,  48,  49,  50,  51,  52,  53,  54,  55,  56,  57,  58,  59,  60,  61
  62,  63,  64,  65,  66,  67,  68,  69,  70,  71,  72,  73,  89,  90,  91,  92
  93,  94,  95,  96,  97,  98,  99, 100, 101, 115, 116, 117, 118, 119, 120, 121
 122, 123, 124, 125, 126, 139, 140, 141, 142, 143, 144, 145, 146, 175, 176, 177
 178, 179, 180, 181, 182, 183, 184, 185, 186, 187, 188, 189, 190, 191, 192, 193
 194, 195, 196, 197, 198, 199, 200, 201, 202, 203, 204, 205, 206, 207, 208, 209
 210, 211, 212, 213, 214, 215, 216, 217, 218, 219, 245, 246, 247, 248, 249, 250
 251, 252, 253, 254, 255, 256, 257, 258, 259, 260, 261, 262, 263, 264, 285, 286
 287, 288, 289, 290, 291, 292, 293, 294, 295, 296, 297, 298, 299, 300, 317, 318
 319, 320, 321, 322, 323, 324, 325, 326, 327, 328, 329, 330, 331, 332
*Elset, elset=SET-X1
 26, 27, 28, 29, 30, 61, 62, 63, 64, 65, 66
*Elset, elset=ESET-ALL, generate
   1,  146,    1
** Section: Section-1-_PICKEDSET29
*Solid Section, elset=_PICKEDSET29, material=ELASTIC
,
*End Part
**
**
** ASSEMBLY
**
*Assembly, name=Assembly
**
*Instance, name=PART-1-1, part=PART-1
          0.,           0.,           0.
          0.,           0.,           0.,           0.,           0., 1.00000001268805, 89.9999992730282
*End Instance
**
*Elset, elset=_LOADSURFACE_S4, internal, instance=PART-1-1, generate
 36,  66,   6
*Elset, elset=_LOADSURFACE_S6, internal, instance=PART-1-1, generate
 67,  91,   6
*Elset, elset=_LOADSURFACE_S4_1, internal, instance=PART-1-1, generate
 36,  66,   6
*Elset, elset=_LOADSURFACE_S6_1, internal, instance=PART-1-1, generate
 67,  91,   6
*Surface, type=ELEMENT, name=LOADSURFACE
_LOADSURFACE_S4_1, S4
_LOADSURFACE_S6_1, S6
*End Assembly
**
** MATERIALS
**
*Material, name=ELASTIC
*Elastic
200000., 0.3
** ----------------------------------------------------------------
**
** STEP: step
**
*Step, name=step, nlgeom=NO, inc=10000
*Static
1., 1., 1e-05, 1.
** 
** OUTPUT REQUESTS
** 
*Restart, write, frequency=0
** 
** FIELD OUTPUT: F-Output-1
** 
*Output, field, variable=PRESELECT
*Output, history, frequency=0
*End Step
