*Heading
** Job name: Job-1 Model name: Model-1
** Generated by: Abaqus/CAE 2020
*Preprint, echo=NO, model=NO, history=NO, contact=NO
**
** PARTS
**
*Part, name=PART-1
*Node
      1,          40.,         -11.
      2,          40.,           0.
      3,          29.,           0.
      4,          29.,          -5.
      5,          35.,         -11.
      6,          40.,          11.
      7,          35.,          11.
      8,          29.,           5.
      9,           0.,           0.
     10,           0.,          -5.
     11,           0.,           5.
     12,         -29.,           0.
     13,         -29.,          -5.
     14,         -29.,           5.
     15,         -40.,           0.
     16,         -40.,         -11.
     17,         -35.,         -11.
     18,         -35.,          11.
     19,         -40.,          11.
     20,          60.,           0.
** ... 2049 like lines cut
*Element, type=CPS4
 1,  26,  27, 507, 499
 2,  27,  28, 508, 507
 3,  28,  29, 509, 508
 4,  29,  30, 510, 509
 5,  30,   1,  31, 510
 6, 499, 507, 511, 498
 7, 507, 508, 512, 511
 8, 508, 509, 513, 512
 9, 509, 510, 514, 513
10, 510,  31,  32, 514
11, 498, 511, 515, 497
12, 511, 512, 516, 515
13, 512, 513, 517, 516
14, 513, 514, 518, 517
15, 514,  32,  33, 518
16, 497, 515, 519, 496
17, 515, 516, 520, 519
18, 516, 517, 521, 520
19, 517, 518, 522, 521
20, 518,  33,  34, 522
** ... 1896 like lines cut
*Nset, nset=Set-All, generate
    1,  2069,     1
*Elset, elset=Set-All, generate
    1,  1916,     1
*Nset, nset=Set-Origin
 9,
*Nset, nset=Set-Fixed
  13,  14,  17,  18, 280, 281, 282, 283, 284, 285, 286, 287, 288, 312, 313, 314
 315, 316, 317, 318, 319, 320
*Elset, elset=Set-Fixed
 867, 868, 869, 870, 946, 947, 948, 949, 950, 951, 972, 973, 974, 975, 976, 977
 978, 979, 980, 981
*Nset, nset=Set-Tensile
  4,  5,  7,  8, 54, 55, 56, 57, 58, 59, 60, 61, 62, 78, 79, 80
 81, 82, 83, 84, 85, 86
*Elset, elset=Set-Tensile
  76,  77,  78,  79,  80,  81,  82,  83,  84,  85, 141, 142, 143, 144, 145, 146
 147, 148, 149, 150
*Nset, nset=Set-Middle-Plane
   9,  10,  11, 120, 121, 122, 123, 124, 181, 182, 183, 184, 185
*Elset, elset=Set-Middle-Plane
 339, 340, 341, 342, 343, 344, 513, 514, 515, 516, 517, 518, 519, 520, 521, 522
 523, 524, 693, 694, 695, 696, 697, 698
** Section: Section-1
*Solid Section, elset=Set-All, material=Ti-6Al-4V
10.,
*End Part
**  
**
** ASSEMBLY
**
*Assembly, name=Assembly
**  
*Instance, name=Part-1-1, part=PART-1
*End Instance
**  
*End Assembly
*Amplitude, name=Amp-1
             0.,              0.,              1.,              1.
** 
** MATERIALS
** 
*Material, name=Ti-6Al-4V
*Density
 4.43e-09,
*Elastic
115000., 0.343
*Plastic
 1161.5,      0.
 1198.5, 0.00985
 1231.9, 0.01961
 1262.6, 0.02927
 1289.4, 0.03884
 1313.3, 0.04832
 1332.7, 0.05771
  1350., 0.06701
** 
** BOUNDARY CONDITIONS
** 
** Name: BC-3 Type: Displacement/Rotation
*Boundary
_PickedSet5, 2, 2
_PickedSet5, 6, 6
** ----------------------------------------------------------------
** 
** STEP: Step-1
** 
*Step, name=Step-1, nlgeom=NO, inc=1000000
*Static
0.05, 1., 1e-06, 0.1
** 
** BOUNDARY CONDITIONS
** 
** Name: BC-Fixed Type: Displacement/Rotation
*Boundary
Part-1-1.Set-Fixed, 1, 1
** Name: BC-Tensile Type: Displacement/Rotation
*Boundary
Part-1-1.Set-Tensile, 1, 1, 5.
** 
** OUTPUT REQUESTS
** 
*Restart, write, frequency=0
** 
** FIELD OUTPUT: F-Output-1
** 
*Output, field, variable=PRESELECT, time interval=0.1
** 
** HISTORY OUTPUT: H-Output-1
** 
*Output, history, variable=PRESELECT
*End Step
