*Heading
** Job name: Job-1 Model name: Model-1
** Generated by: Abaqus/CAE 2023
*Preprint, echo=NO, model=NO, history=NO, contact=NO
**
** PARTS
**
*Part, name=Part-1
*Node
      1,           0.,           0.
      2,           1.,           0.
      3,           0.,           1.
      4,           1.,           1.
      5,          0.5,           0.
      6,           1.,          0.5
      7,          0.5,           1.
      8,           0.,          0.5
*Element, type=CPE8
1, 1, 2, 4, 3, 5, 6, 7, 8
*Nset, nset=Set-Y0
 1, 2, 5
*Elset, elset=Set-Y0
 1,
*Nset, nset=Set-Y1
 3, 4, 7
*Elset, elset=Set-Y1
 1,
*Nset, nset=Set-X0
 1, 3, 8
*Elset, elset=Set-X0
 1,
*Nset, nset=Set-X1, generate
 2,  6,  2
*Elset, elset=Set-X1
 1,
*Nset, nset=Set-All, generate
 1,  8,  1
*Elset, elset=Set-All
 1,
*Nset, nset=Set-X0Y0
 1,
*Nset, nset=_PickedSet14, internal, generate
 1,  8,  1
*Elset, elset=_PickedSet14, internal
 1,
** Section: Section-1
*Solid Section, elset=_PickedSet14, material=Material-1
,
*End Part
**  
**
** ASSEMBLY
**
*Assembly, name=Assembly
**  
*Instance, name=Part-1-1, part=Part-1
*End Instance
**  
*End Assembly
** 
** MATERIALS
** 
*Material, name=Material-1
*Elastic
1., 0.25
** ----------------------------------------------------------------
** 
** STEP: Step-1
** 
*Step, name=Step-1, nlgeom=NO
*Static
1., 1., 1e-05, 1.
** 
** BOUNDARY CONDITIONS
** 
** Name: BC-1 Type: Displacement/Rotation
*Boundary
Part-1-1.Set-X0, 1, 1
Part-1-1.Set-X0, 2, 2
** Name: BC-2 Type: Displacement/Rotation
*Boundary
Part-1-1.Set-X1, 2, 2, 0.1
** 
** OUTPUT REQUESTS
** 
*Restart, write, frequency=0
** 
** FIELD OUTPUT: F-Output-1
** 
*Output, field, variable=PRESELECT
** 
** HISTORY OUTPUT: H-Output-1
** 
*Output, history, variable=PRESELECT
*End Step
