*Heading
** Job name: Job-1 Model name: Model-1
** Generated by: Abaqus/CAE 2020
*Preprint, echo=NO, model=NO, history=NO, contact=NO
**
** PARTS
**
*Part, name=PART-1
*Node
      1,  -5.25459719,   38.1599197,          40.
      2,  -5.25459719,   38.1599197,           0.
      3,  -3.91621065,          34.,           0.
      4,  -3.91621065,          34.,          40.
      5,           0.,   38.5200005,           0.
      6,           0.,          34.,           0.
      7,           0.,          34.,          40.
      8,           0.,   38.5200005,          40.
      9,  -12.3800001,   36.4763756,          40.
     10,  -12.3800001,   36.4763756,           0.
     11,  -6.91621065,          31.,           0.
     12,  -6.91621065,          31.,          40.
     13,  -10.5103693,   54.4957085,           0.
     14,           0.,         55.5,           0.
     15,  -10.5103693,   54.4957085,          40.
     16,           0.,         55.5,          40.
     17,  -21.3215923,   51.2409973,           0.
     18,  -21.3215923,   51.2409973,          40.
     19,  -32.6220818,    44.900444,           0.
     20,  -22.6414871,   31.1633339,           0.
** ... 11214 like lines cut
*Element, type=C3D20
  1,   84,  449, 1598,  433,    1,   29,  361,   54, 2996, 2995, 2994, 2993, 2997, 2998, 2999,
     3000, 3002, 3001, 3003, 3004
  2,  449,  450, 1599, 1598,   29,   30,  362,  361, 3007, 3006, 3005, 2995, 3008, 3009, 3010,
     2998, 3001, 3011, 3012, 3003
  3,  450,  451, 1600, 1599,   30,   31,  363,  362, 3015, 3014, 3013, 3006, 3016, 3017, 3018,
     3009, 3011, 3019, 3020, 3012
  4,  451,  452, 1601, 1600,   31,   32,  364,  363, 3023, 3022, 3021, 3014, 3024, 3025, 3026,
     3017, 3019, 3027, 3028, 3020
  5,  452,  453, 1602, 1601,   32,   33,  365,  364, 3031, 3030, 3029, 3022, 3032, 3033, 3034,
     3025, 3027, 3035, 3036, 3028
  6,  453,  454, 1603, 1602,   33,   34,  366,  365, 3039, 3038, 3037, 3030, 3040, 3041, 3042,
     3033, 3035, 3043, 3044, 3036
  7,  454,  455, 1604, 1603,   34,   35,  367,  366, 3047, 3046, 3045, 3038, 3048, 3049, 3050,
     3041, 3043, 3051, 3052, 3044
  8,  455,  456, 1605, 1604,   35,   36,  368,  367, 3055, 3054, 3053, 3046, 3056, 3057, 3058,
     3049, 3051, 3059, 3060, 3052
  9,  456,  457, 1606, 1605,   36,   37,  369,  368, 3063, 3062, 3061, 3054, 3064, 3065, 3066,
     3057, 3059, 3067, 3068, 3060
 10,  457,   87,  441, 1606,   37,    2,   38,  369, 3071, 3070, 3069, 3062, 3072, 3073, 3074,
     3065, 3067, 3075, 3076, 3068
** ... 4600 like lines cut
*Nset, nset=Set-Z0
     2,     3,     5,     6,    10,    11,    13,    14,    17,    19,    20,    23,    26,    27,    38,    39
    40,    41,    64,    65,    66,    67,    85,    86,    87,    88,    98,    99,   100,   101,   121,   122
   123,   124,   125,   126,   127,   128,   129,   130,   131,   132,   133,   134,   135,   136,   137,   138
   139,   140,   141,   142,   177,   178,   179,   180,   181,   182,   183,   184,   185,   186,   206,   207
   208,   209,   210,   211,   212,   242,   243,   244,   245,   250,   251,   252,   253,   254,   255,   256
   257,   258,   259,   260,   261,   262,   263,   264,   265,   266,   267,   268,   269,   270,   280,   281
   282,   283,   328,   329,   330,   331,   332,   333,   334,   335,   336,   337,   338,   339,   340,   341
   342,   343,   344,   345,   346,   441,   442,   443,   444,   445,   446,   447,   448,   533,   534,   535
   536,   537,   538,   539,   540,   541,   542,   543,   544,   599,   600,   601,   602,   603,   604,   605
   606,   607,   608,   609,   610,   611,   612,   771,   772,   773,   774,   775,   776,   777,   778,   779
   780,   781,   782,   783,   784,   785,   786,   787,   788,   789,   790,   791,  1038,  1039,  1040,  1041
  1042,  1043,  1044,  1045,  1046,  1047,  1048,  1049,  1050,  1051,  1052,  1053,  1054,  1055,  1056,  1057
  1058,  1059,  1060,  1061,  1062,  1063,  1064,  1065,  1283,  1284,  1285,  1286,  1287,  1288,  1289,  1290
  1291,  1292,  1293,  1294,  1295,  1296,  1297,  1298,  1299,  1300,  1301,  1302,  1303,  1304,  1305,  1306
  1307,  1308,  1309,  1310,  1311,  1312,  1313,  1314,  1315,  1316,  1317,  1318,  1319,  1320,  1321,  1322
  1323,  1324,  1325,  1326,  1327,  1328,  1329,  1330,  1331,  1332,  1333,  1334,  1335,  1336,  1337,  1338
  1339,  1340,  1341,  1342,  1343,  1344,  1345,  1346,  1347,  1348,  1349,  1350,  1545,  1546,  1547,  1548
  3070,  3073,  3075,  3076,  3126,  3127,  3129,  3179,  3180,  3182,  3232,  3233,  3235,  3285,  3286,  3288
  3338,  3340,  3341,  3372,  3373,  3404,  3405,  3436,  3437,  3468,  3469,  3519,  3521,  3522,  3553,  3554
  3585,  3586,  3617,  3618,  3649,  3650,  3700,  3702,  3703,  3733,  3735,  3765,  3767,  3797,  3799,  3829
** ... 29 like lines cut
*Elset, elset=Set-Z0
   10,   20,   30,   40,   50,   60,   70,   80,   90,  100,  110,  120,  130,  140,  150,  160
  170,  180,  190,  200,  210,  220,  230,  240,  250,  260,  270,  280,  290,  300,  310,  320
  330,  340,  350,  351,  352,  353,  354,  355,  356,  357,  358,  359,  360,  361,  362,  363
  364,  365,  366,  367,  368,  369,  370,  371,  372,  373,  374,  591,  592,  593,  594,  595
  596,  597,  598,  599,  600,  601,  602,  603,  604,  605,  606,  607,  608,  609,  610,  611
  612,  613,  614,  615,  616,  617,  618,  619,  620,  621,  622,  911,  912,  913,  914,  915
  916,  917,  918,  991,  992,  993,  994,  995,  996,  997,  998, 1071, 1072, 1073, 1074, 1075
 1076, 1077, 1078, 1151, 1152, 1153, 1154, 1155, 1156, 1157, 1158, 1231, 1232, 1233, 1234, 1235
 1236, 1237, 1238, 1311, 1312, 1313, 1314, 1315, 1316, 1317, 1318, 1319, 1320, 1321, 1322, 1323
 1324, 1381, 1382, 1383, 1384, 1385, 1386, 1387, 1388, 1389, 1390, 1391, 1392, 1393, 1394, 1451
 1452, 1453, 1454, 1455, 1456, 1457, 1458, 1459, 1460, 1461, 1462, 1463, 1464, 1521, 1522, 1523
 1524, 1525, 1526, 1527, 1528, 1529, 1530, 1531, 1532, 1533, 1534, 1955, 1960, 1965, 1970, 1975
 1980, 1985, 1990, 1995, 2000, 2005, 2010, 2015, 2020, 2025, 2030, 2101, 2106, 2111, 2116, 2121
 2126, 2131, 2136, 2141, 2146, 2151, 2156, 2161, 2166, 2171, 2172, 2173, 2174, 2191, 2221, 2226
 2227, 2228, 2229, 2246, 2247, 2248, 2249
*Nset, nset=Set-Z1
     1,     4,     7,     8,     9,    12,    15,    16,    18,    21,    22,    24,    25,    28,    51,    52
    53,    54,    77,    78,    79,    80,    81,    82,    83,    84,   111,   112,   113,   114,   115,   116
   117,   118,   119,   120,   143,   144,   145,   146,   147,   148,   149,   150,   151,   152,   153,   154
   155,   156,   157,   158,   187,   188,   189,   190,   191,   192,   193,   194,   195,   196,   222,   223
   224,   225,   226,   227,   228,   238,   239,   240,   241,   246,   247,   248,   249,   284,   285,   286
   287,   288,   289,   290,   291,   292,   293,   294,   295,   296,   297,   298,   299,   300,   301,   302
   303,   304,   314,   315,   316,   317,   318,   319,   320,   321,   322,   323,   324,   325,   326,   327
   356,   357,   358,   359,   360,   433,   434,   435,   436,   437,   438,   439,   440,   521,   522,   523
   524,   525,   526,   527,   528,   529,   530,   531,   532,   613,   614,   615,   616,   617,   618,   619
   620,   621,   622,   623,   624,   625,   626,   792,   793,   794,   795,   796,   797,   798,   799,   800
   801,   802,   803,   804,   805,   806,   807,   808,   809,   810,   811,   812,  1066,  1067,  1068,  1069
  1070,  1071,  1072,  1073,  1074,  1075,  1076,  1077,  1078,  1079,  1080,  1081,  1082,  1083,  1084,  1085
  1086,  1087,  1088,  1089,  1090,  1091,  1092,  1093,  1351,  1352,  1353,  1354,  1355,  1356,  1357,  1358
  1359,  1360,  1361,  1362,  1363,  1364,  1365,  1366,  1367,  1368,  1369,  1370,  1371,  1372,  1373,  1374
  1375,  1376,  1377,  1378,  1379,  1380,  1381,  1382,  1383,  1384,  1385,  1386,  1387,  1388,  1389,  1390
  1391,  1392,  1393,  1394,  1395,  1396,  1397,  1398,  1399,  1400,  1401,  1402,  1403,  1404,  1405,  1406
  1407,  1408,  1409,  1410,  1411,  1412,  1413,  1414,  1415,  1416,  1417,  1418,  1594,  1595,  1596,  1597
  2993,  3000,  3002,  3004,  3077,  3082,  3084,  3130,  3135,  3137,  3183,  3188,  3190,  3236,  3241,  3243
  3289,  3294,  3296,  3342,  3346,  3374,  3378,  3406,  3410,  3438,  3442,  3470,  3475,  3477,  3523,  3527
  3555,  3559,  3587,  3591,  3619,  3623,  3654,  3656,  3658,  3706,  3708,  3738,  3740,  3770,  3772,  3802
** ... 29 like lines cut
*Elset, elset=Set-Z1
    1,   11,   21,   31,   41,   51,   61,   71,   81,   91,  101,  111,  121,  131,  141,  151
  161,  171,  181,  191,  201,  211,  221,  231,  241,  251,  261,  271,  281,  291,  301,  311
  321,  331,  341,  567,  568,  569,  570,  571,  572,  573,  574,  575,  576,  577,  578,  579
  580,  581,  582,  583,  584,  585,  586,  587,  588,  589,  590,  879,  880,  881,  882,  883
  884,  885,  886,  887,  888,  889,  890,  891,  892,  893,  894,  895,  896,  897,  898,  899
  900,  901,  902,  903,  904,  905,  906,  907,  908,  909,  910,  983,  984,  985,  986,  987
  988,  989,  990, 1063, 1064, 1065, 1066, 1067, 1068, 1069, 1070, 1143, 1144, 1145, 1146, 1147
 1148, 1149, 1150, 1223, 1224, 1225, 1226, 1227, 1228, 1229, 1230, 1303, 1304, 1305, 1306, 1307
 1308, 1309, 1310, 1595, 1600, 1605, 1610, 1615, 1620, 1625, 1630, 1635, 1640, 1645, 1650, 1655
 1660, 1665, 1670, 1675, 1680, 1685, 1690, 1695, 1700, 1705, 1710, 1715, 1720, 1725, 1730, 1735
 1740, 1745, 1750, 1755, 1760, 1765, 1770, 1775, 1780, 1785, 1790, 1795, 1800, 1805, 1810, 1815
 1820, 1825, 1830, 1835, 1840, 1845, 1850, 1855, 1860, 1865, 1870, 1871, 1872, 1873, 1874, 1891
 1892, 1893, 1894, 1911, 1912, 1913, 1914, 1931, 1932, 1933, 1934, 2035, 2040, 2045, 2050, 2055
 2060, 2065, 2070, 2075, 2080, 2085, 2090, 2095, 2100, 2196, 2205, 2210, 2215, 2220, 2270, 2271
 2272, 2273, 2274, 2295, 2300, 2305, 2310
*Nset, nset=Set-Inner
     3,     4,     6,     7,    11,    12,    25,    26,    27,    28,    42,    43,    44,    45,    46,    47
    48,    49,    50,    68,    69,    70,    71,    72,    73,    74,    75,    76,    81,    82,    85,    86
   102,   103,   104,   105,   106,   107,   108,   109,   110,   115,   116,   117,   121,   122,   123,   305
   306,   307,   308,   309,   310,   311,   312,   313,   314,   315,   316,   317,   318,   319,   320,   321
   322,   323,   324,   325,   326,   327,   328,   329,   330,   331,   332,   333,   334,   335,   336,   337
   338,   339,   340,   341,   346,   347,   348,   349,   350,   351,   352,   353,   354,   355,   360,   467
   468,   469,   470,   471,   472,   473,   474,   475,   476,   477,   478,   479,   480,   481,   482,   483
   484,   572,   573,   574,   575,   576,   577,   578,   579,   580,   581,   582,   583,   584,   585,   586
   587,   588,   589,   590,   591,   592,   593,   594,   595,   596,   597,   598,  1419,  1420,  1421,  1422
  1423,  1424,  1425,  1426,  1427,  1428,  1429,  1430,  1431,  1432,  1433,  1434,  1435,  1436,  1437,  1438
  1439,  1440,  1441,  1442,  1443,  1444,  1445,  1446,  1447,  1448,  1449,  1450,  1451,  1452,  1453,  1454
  1455,  1456,  1457,  1458,  1459,  1460,  1461,  1462,  1463,  1464,  1465,  1466,  1467,  1468,  1469,  1470
  1471,  1472,  1473,  1474,  1475,  1476,  1477,  1478,  1479,  1480,  1481,  1482,  1483,  1484,  1485,  1486
  1487,  1488,  1489,  1490,  1491,  1492,  1493,  1494,  1495,  1496,  1497,  1498,  1499,  1500,  1501,  1502
  1503,  1504,  1505,  1506,  1507,  1508,  1509,  1510,  1511,  1512,  1513,  1514,  1515,  1516,  1517,  1518
  1519,  1520,  1521,  1522,  1523,  1524,  1525,  1526,  1527,  1528,  1529,  1530,  1531,  1532,  1533,  1534
  1535,  1536,  1537,  1538,  1539,  1540,  1541,  1542,  1543,  1544,  1585,  1586,  1587,  1588,  1589,  1590
  1591,  1592,  1593,  3237,  3240,  3242,  3243,  3244,  3247,  3248,  3249,  3252,  3253,  3254,  3257,  3258
  3259,  3262,  3263,  3264,  3267,  3268,  3269,  3272,  3273,  3274,  3277,  3278,  3279,  3282,  3283,  3284
  3287,  3288,  3439,  3441,  3442,  3443,  3445,  3446,  3448,  3449,  3451,  3452,  3454,  3455,  3457,  3458
** ... 30 like lines cut
*Elset, elset=Set-Inner
   41,   42,   43,   44,   45,   46,   47,   48,   49,   50,   91,   92,   93,   94,   95,   96
   97,   98,   99,  100,  141,  142,  143,  144,  145,  146,  147,  148,  149,  150,  191,  192
  193,  194,  195,  196,  197,  198,  199,  200,  241,  242,  243,  244,  245,  246,  247,  248
  249,  250,  291,  292,  293,  294,  295,  296,  297,  298,  299,  300,  341,  342,  343,  344
  345,  346,  347,  348,  349,  350, 2031, 2032, 2033, 2034, 2035, 2036, 2037, 2038, 2039, 2040
 2041, 2042, 2043, 2044, 2045, 2046, 2047, 2048, 2049, 2050, 2051, 2052, 2053, 2054, 2055, 2056
 2057, 2058, 2059, 2060, 2061, 2062, 2063, 2064, 2065, 2066, 2067, 2068, 2069, 2070, 2071, 2072
 2073, 2074, 2075, 2076, 2077, 2078, 2079, 2080, 2081, 2082, 2083, 2084, 2085, 2086, 2087, 2088
 2089, 2090, 2091, 2092, 2093, 2094, 2095, 2096, 2097, 2098, 2099, 2100, 2101, 2102, 2103, 2104
 2105, 2106, 2107, 2108, 2109, 2110, 2111, 2112, 2113, 2114, 2115, 2116, 2117, 2118, 2119, 2120
 2121, 2122, 2123, 2124, 2125, 2126, 2127, 2128, 2129, 2130, 2131, 2132, 2133, 2134, 2135, 2136
 2137, 2138, 2139, 2140, 2141, 2142, 2143, 2144, 2145, 2146, 2147, 2148, 2149, 2150, 2151, 2152
 2153, 2154, 2155, 2156, 2157, 2158, 2159, 2160, 2161, 2162, 2163, 2164, 2165, 2166, 2167, 2168
 2169, 2170, 2191, 2192, 2193, 2194, 2195, 2196, 2197, 2198, 2199, 2200, 2229, 2233, 2237, 2241
 2245, 2246, 2250, 2254, 2258, 2262, 2274, 2278, 2282, 2286, 2290, 2291, 2292, 2293, 2294, 2295
*Nset, nset=Set-All, generate
     1,  11234,      1
*Elset, elset=Set-All, generate
    1,  2310,     1
*Nset, nset=Set-T0
    5,    6,    7,    8,   14,   16,   55,   56,   57,   58,   59,   60,   61,   62,   63,   64
   65,   66,   67,   68,   69,   70,   71,   72,   73,   74,   75,   76,   77,   78,   79,   80
  136,  137,  138,  139,  140,  141,  142,  152,  153,  154,  155,  156,  157,  158,  159,  160
  161,  162,  163,  164,  165,  166,  167,  397,  398,  399,  400,  401,  402,  403,  404,  405
  406,  407,  408,  409,  410,  411,  412,  413,  414,  415,  416,  417,  418,  419,  420,  421
  422,  423,  424,  425,  426,  427,  428,  429,  430,  431,  432,  708,  709,  710,  711,  712
  713,  714,  715,  716,  717,  718,  719,  720,  721,  722,  723,  724,  725,  726,  727,  728
  729,  730,  731,  732,  733,  734,  735,  736,  737,  738,  739,  740,  741,  742,  743,  744
  745,  746,  747,  748,  749,  750,  751,  752,  753,  754,  755,  756,  757,  758,  759,  760
  761,  762,  763,  764,  765,  766,  767,  768,  769,  770, 3470, 3471, 3472, 3473, 3478, 3479
 3480, 3483, 3484, 3485, 3488, 3489, 3490, 3493, 3494, 3495, 3498, 3499, 3500, 3503, 3504, 3505
 3508, 3509, 3510, 3513, 3514, 3515, 3518, 3519, 3520, 3523, 3524, 3525, 3528, 3529, 3531, 3532
 3534, 3535, 3537, 3538, 3540, 3541, 3543, 3544, 3546, 3547, 3549, 3550, 3552, 3553, 3555, 3556
 3557, 3560, 3561, 3563, 3564, 3566, 3567, 3569, 3570, 3572, 3573, 3575, 3576, 3578, 3579, 3581
 3582, 3584, 3585, 3587, 3588, 3589, 3592, 3593, 3595, 3596, 3598, 3599, 3601, 3602, 3604, 3605
 3607, 3608, 3610, 3611, 3613, 3614, 3616, 3617, 3619, 3620, 3621, 3624, 3625, 3627, 3628, 3630
 3631, 3633, 3634, 3636, 3637, 3639, 3640, 3642, 3643, 3645, 3646, 3648, 3649, 4479, 4482, 4483
 4484, 4487, 4488, 4489, 4492, 4493, 4494, 4497, 4498, 4499, 4502, 4503, 4504, 4507, 4508, 4509
 4512, 4513, 4514, 4517, 4518, 4583, 4585, 4586, 4588, 4589, 4591, 4592, 4594, 4595, 4597, 4598
 4600, 4601, 4603, 4604, 4606, 4671, 4673, 4674, 4676, 4677, 4679, 4680, 4682, 4683, 4685, 4686
** ... 8 like lines cut
*Elset, elset=Set-T0
 101, 102, 103, 104, 105, 106, 107, 108, 109, 110, 111, 112, 113, 114, 115, 116
 117, 118, 119, 120, 121, 122, 123, 124, 125, 126, 127, 128, 129, 130, 131, 132
 133, 134, 135, 136, 137, 138, 139, 140, 141, 142, 143, 144, 145, 146, 147, 148
 149, 150, 367, 368, 369, 370, 371, 372, 373, 374, 391, 392, 393, 394, 395, 396
 397, 398, 415, 416, 417, 418, 419, 420, 421, 422, 439, 440, 441, 442, 443, 444
 445, 446, 463, 464, 465, 466, 467, 468, 469, 470, 487, 488, 489, 490, 491, 492
 493, 494, 511, 512, 513, 514, 515, 516, 517, 518, 535, 536, 537, 538, 539, 540
 541, 542, 559, 560, 561, 562, 563, 564, 565, 566, 583, 584, 585, 586, 587, 588
 589, 590
*Nset, nset=Set-T1
    19,    20,    21,    22,    23,    24,    27,    28,   206,   207,   208,   209,   210,   211,   212,   213
   214,   215,   216,   217,   218,   219,   220,   221,   222,   223,   224,   225,   226,   227,   228,   229
   230,   231,   232,   233,   234,   235,   236,   237,   254,   255,   256,   257,   258,   259,   260,   261
   262,   263,   264,   265,   266,   267,   268,   269,   270,   271,   272,   273,   274,   275,   276,   277
   278,   279,   284,   285,   286,   287,   288,   289,   290,   291,   292,   293,   294,   295,   296,   297
   298,   299,   300,   342,   343,   344,   345,   347,   348,   349,   350,   351,   352,   353,   354,   355
   356,   357,   358,   359,   903,   904,   905,   906,   907,   908,   909,   910,   911,   912,   913,   914
   915,   916,   917,   918,   919,   920,   921,   922,   923,   924,   925,   926,   927,   928,   929,   930
   931,   932,   933,   934,   935,   936,   937,   938,   939,   940,   941,   942,   943,   944,   945,   946
   947,   948,   949,   950,   951,   952,   953,   954,   955,   956,   957,   958,   959,   960,   961,   962
   963,   964,   965,  1094,  1095,  1096,  1097,  1098,  1099,  1100,  1101,  1102,  1103,  1104,  1105,  1106
  1107,  1108,  1109,  1110,  1111,  1112,  1113,  1114,  1115,  1116,  1117,  1118,  1119,  1120,  1121,  1122
  1123,  1124,  1125,  1126,  1127,  1128,  1129,  1130,  1131,  1132,  1133,  1134,  1135,  1136,  1137,  1138
  1139,  1140,  1141,  1142,  1143,  1144,  1145,  1146,  1147,  1148,  1149,  1150,  1151,  1152,  1153,  1154
  1155,  1156,  1157,  1158,  1159,  1160,  1161,  1162,  1163,  1164,  1165,  1166,  1167,  1168,  1169,  1170
  1171,  1172,  1173,  1174,  1175,  1176,  1177,  1178,  1179,  1180,  1181,  1182,  1183,  1184,  1185,  1186
  1187,  1188,  1189,  1190,  1191,  1192,  1193,  1194,  1195,  1196,  1197,  1198,  1199,  1200,  1201,  1202
  1203,  1204,  1205,  1206,  1207,  1208,  1209,  1210,  1211,  1212,  1213,  1214,  1215,  1216,  1217,  1218
  1219,  1220,  1221,  1222,  1223,  1224,  1225,  1226,  1227,  1228,  1229,  1230,  1231,  1232,  1233,  1234
  1235,  1236,  1237,  1238,  1239,  1240,  1241,  1242,  1243,  1244,  1245,  1246,  1549,  1550,  1551,  1552
** ... 44 like lines cut
*Elset, elset=Set-T1
 1231, 1232, 1233, 1234, 1235, 1236, 1237, 1238, 1239, 1240, 1241, 1242, 1243, 1244, 1245, 1246
 1247, 1248, 1249, 1250, 1251, 1252, 1253, 1254, 1255, 1256, 1257, 1258, 1259, 1260, 1261, 1262
 1263, 1264, 1265, 1266, 1267, 1268, 1269, 1270, 1271, 1272, 1273, 1274, 1275, 1276, 1277, 1278
 1279, 1280, 1281, 1282, 1283, 1284, 1285, 1286, 1287, 1288, 1289, 1290, 1291, 1292, 1293, 1294
 1295, 1296, 1297, 1298, 1299, 1300, 1301, 1302, 1303, 1304, 1305, 1306, 1307, 1308, 1309, 1310
 1311, 1312, 1313, 1314, 1315, 1316, 1317, 1318, 1319, 1320, 1321, 1322, 1323, 1324, 1325, 1326
 1327, 1328, 1329, 1330, 1331, 1332, 1333, 1334, 1335, 1336, 1337, 1338, 1339, 1340, 1341, 1342
 1343, 1344, 1345, 1346, 1347, 1348, 1349, 1350, 1351, 1352, 1353, 1354, 1355, 1356, 1357, 1358
 1359, 1360, 1361, 1362, 1363, 1364, 1365, 1366, 1367, 1368, 1369, 1370, 1371, 1372, 1373, 1374
 1375, 1376, 1377, 1378, 1379, 1380, 1591, 1592, 1593, 1594, 1595, 1596, 1597, 1598, 1599, 1600
 1601, 1602, 1603, 1604, 1605, 1606, 1607, 1608, 1609, 1610, 1611, 1612, 1613, 1614, 1615, 1616
 1617, 1618, 1619, 1620, 1621, 1622, 1623, 1624, 1625, 1626, 1627, 1628, 1629, 1630, 1631, 1632
 1633, 1634, 1635, 1636, 1637, 1638, 1639, 1640, 1641, 1642, 1643, 1644, 1645, 1646, 1647, 1648
 1649, 1650, 1651, 1652, 1653, 1654, 1655, 1656, 1657, 1658, 1659, 1660, 1871, 1872, 1873, 1874
 1875, 1876, 1877, 1878, 1879, 1880, 1881, 1882, 1883, 1884, 1885, 1886, 1887, 1888, 1889, 1890
 1951, 1952, 1953, 1954, 1955, 1956, 1957, 1958, 1959, 1960, 1961, 1962, 1963, 1964, 1965, 1966
 1967, 1968, 1969, 1970, 2221, 2222, 2223, 2224, 2225, 2246, 2247, 2248, 2249, 2250, 2251, 2252
 2253, 2254, 2255, 2256, 2257, 2258, 2259, 2260, 2261, 2262, 2263, 2264, 2265, 2266, 2267, 2268
 2269, 2270, 2291, 2292, 2293, 2294, 2295, 2296, 2297, 2298, 2299, 2300, 2301, 2302, 2303, 2304
 2305, 2306, 2307, 2308, 2309, 2310
*End Part
**  
**
** ASSEMBLY
**
*Assembly, name=Assembly
**  
*Instance, name=PART-1-1, part=PART-1
*End Instance
**  
*Nset, nset="_T-Datum csys-2", internal
PART-1-1.Set-T0, 
PART-1-1.Set-T1, 
*Transform, nset="_T-Datum csys-2", type=C
          0.,           0.,           0.,           0.,           0.,           1.
*End Assembly
*Amplitude, name=Amp-1
             0.,              0.,              1.,              1.
** 
** MATERIALS
** 
*Material, name=GRAIN
*Density
 1.73e-09,
*Elastic
115000., 0.3
*Material, name=Steel
*Density
 1.73e-09,
*Elastic
 2e+06, 0.3
** ----------------------------------------------------------------
** 
** STEP: Step-1
** 
*Step, name=Step-1, nlgeom=NO
*Static
1., 1., 1e-05, 1.
** 
** BOUNDARY CONDITIONS
** 
** Name: BC-1 Type: Symmetry/Antisymmetry/Encastre
*Boundary
PART-1-1.Set-T0, YSYMM
** Name: BC-2 Type: Symmetry/Antisymmetry/Encastre
*Boundary
PART-1-1.Set-T1, YSYMM
** 
** OUTPUT REQUESTS
** 
*Restart, write, frequency=0
** 
** FIELD OUTPUT: F-Output-1
** 
*Output, field, variable=PRESELECT
** 
** HISTORY OUTPUT: H-Output-1
** 
*Output, history, variable=PRESELECT
*End Step
