*Heading
** Job name: Job-1 Model name: Model-1
** Generated by: Abaqus/CAE 2020
*Preprint, echo=NO, model=NO, history=NO, contact=NO
**
** PARTS
**
*Part, name=PART-1
*Node
      1,  -5.25459719,   38.1599197,          40.
      2,  -5.25459719,   38.1599197,           0.
      3,  -3.91621065,          34.,           0.
      4,  -3.91621065,          34.,          40.
      5,           0.,   38.5200005,           0.
      6,           0.,          34.,           0.
      7,           0.,          34.,          40.
      8,           0.,   38.5200005,          40.
      9,  -12.3800001,   36.4763756,          40.
     10,  -12.3800001,   36.4763756,           0.
     11,  -6.91621065,          31.,           0.
     12,  -6.91621065,          31.,          40.
     13,  -10.5103693,   54.4957085,           0.
     14,           0.,         55.5,           0.
     15,  -10.5103693,   54.4957085,          40.
     16,           0.,         55.5,          40.
     17,  -21.3215923,   51.2409973,           0.
     18,  -21.3215923,   51.2409973,          40.
     19,  -32.6220818,    44.900444,           0.
     20,  -22.6414871,   31.1633339,           0.
** ... 2169 like lines cut
*Element, type=C3D8
  1,   80,  393, 1299,  381,    1,   29,  327,   52
  2,  393,  394, 1300, 1299,   29,   30,  328,  327
  3,  394,  395, 1301, 1300,   30,   31,  329,  328
  4,  395,  396, 1302, 1301,   31,   32,  330,  329
  5,  396,  397, 1303, 1302,   32,   33,  331,  330
  6,  397,  398, 1304, 1303,   33,   34,  332,  331
  7,  398,  399, 1305, 1304,   34,   35,  333,  332
  8,  399,  400, 1306, 1305,   35,   36,  334,  333
  9,  400,  401, 1307, 1306,   36,   37,  335,  334
 10,  401,   83,  387, 1307,   37,    2,   38,  335
 11,  381, 1299, 1308,  382,   52,  327,  336,   51
 12, 1299, 1300, 1309, 1308,  327,  328,  337,  336
 13, 1300, 1301, 1310, 1309,  328,  329,  338,  337
 14, 1301, 1302, 1311, 1310,  329,  330,  339,  338
 15, 1302, 1303, 1312, 1311,  330,  331,  340,  339
 16, 1303, 1304, 1313, 1312,  331,  332,  341,  340
 17, 1304, 1305, 1314, 1313,  332,  333,  342,  341
 18, 1305, 1306, 1315, 1314,  333,  334,  343,  342
 19, 1306, 1307, 1316, 1315,  334,  335,  344,  343
 20, 1307,  387,  388, 1316,  335,   38,   39,  344
** ... 1620 like lines cut
*Nset, nset=Set-Z0
    2,    3,    5,    6,   10,   11,   13,   14,   17,   19,   20,   23,   26,   27,   38,   39
   40,   62,   63,   64,   81,   82,   83,   84,   94,   95,   96,  115,  116,  117,  118,  119
  120,  121,  122,  123,  124,  125,  126,  127,  128,  129,  130,  131,  132,  133,  134,  135
  136,  171,  172,  173,  174,  175,  176,  177,  178,  179,  180,  200,  201,  202,  203,  204
  205,  206,  236,  237,  238,  239,  244,  245,  246,  247,  248,  249,  250,  251,  252,  253
  254,  255,  256,  257,  258,  268,  302,  303,  304,  305,  306,  307,  308,  309,  310,  311
  312,  313,  314,  315,  387,  388,  389,  390,  391,  392,  465,  466,  467,  468,  469,  470
  471,  472,  473,  528,  529,  530,  531,  532,  533,  534,  535,  536,  537,  538,  539,  540
  541,  700,  701,  702,  703,  704,  705,  706,  707,  708,  709,  710,  711,  712,  713,  714
  715,  716,  717,  718,  719,  720,  967,  968,  969,  970,  971,  972,  973,  974,  975,  976
  977,  978,  979,  980,  981,  982,  983,  984,  985,  986,  987,  988,  989,  990,  991,  992
  993,  994, 1131, 1132, 1133, 1134, 1135, 1136, 1137, 1138, 1139, 1140, 1141, 1142, 1143, 1144
 1145, 1146, 1147, 1148, 1149, 1150, 1279
*Elset, elset=Set-Z0
   10,   20,   30,   40,   50,   60,   70,   80,   90,  100,  110,  120,  130,  140,  150,  160
  170,  180,  190,  200,  210,  220,  230,  240,  250,  260,  270,  280,  281,  282,  283,  284
  285,  286,  287,  288,  289,  290,  291,  292,  293,  294,  295,  296,  297,  298,  299,  300
  301,  302,  303,  304,  521,  522,  523,  524,  525,  526,  527,  528,  529,  530,  531,  532
  533,  534,  535,  536,  537,  538,  539,  540,  541,  542,  543,  544,  545,  546,  547,  548
  549,  550,  551,  552,  841,  842,  843,  844,  845,  846,  847,  848,  921,  922,  923,  924
  925,  926,  927,  928, 1001, 1002, 1003, 1004, 1005, 1006, 1007, 1008, 1081, 1082, 1083, 1084
 1085, 1086, 1087, 1088, 1161, 1162, 1163, 1164, 1165, 1166, 1167, 1168, 1241, 1242, 1243, 1244
 1245, 1246, 1247, 1248, 1249, 1350, 1355, 1360, 1406, 1411, 1416, 1421, 1426, 1431, 1436, 1441
 1446, 1451, 1452, 1453, 1454, 1455, 1456, 1457, 1458, 1459, 1460, 1461, 1462, 1511, 1512, 1513
 1514, 1611, 1616, 1621
*Nset, nset=Set-Z1
    1,    4,    7,    8,    9,   12,   15,   16,   18,   21,   22,   24,   25,   28,   50,   51
   52,   74,   75,   76,   77,   78,   79,   80,  106,  107,  108,  109,  110,  111,  112,  113
  114,  137,  138,  139,  140,  141,  142,  143,  144,  145,  146,  147,  148,  149,  150,  151
  152,  181,  182,  183,  184,  185,  186,  187,  188,  189,  190,  216,  217,  218,  219,  220
  221,  222,  232,  233,  234,  235,  240,  241,  242,  243,  269,  270,  271,  272,  273,  274
  275,  276,  277,  278,  279,  280,  290,  291,  292,  293,  294,  295,  296,  297,  298,  299
  300,  301,  325,  326,  381,  382,  383,  384,  385,  386,  456,  457,  458,  459,  460,  461
  462,  463,  464,  542,  543,  544,  545,  546,  547,  548,  549,  550,  551,  552,  553,  554
  555,  721,  722,  723,  724,  725,  726,  727,  728,  729,  730,  731,  732,  733,  734,  735
  736,  737,  738,  739,  740,  741,  995,  996,  997,  998,  999, 1000, 1001, 1002, 1003, 1004
 1005, 1006, 1007, 1008, 1009, 1010, 1011, 1012, 1013, 1014, 1015, 1016, 1017, 1018, 1019, 1020
 1021, 1022, 1151, 1152, 1153, 1154, 1155, 1156, 1157, 1158, 1159, 1160, 1161, 1162, 1163, 1164
 1165, 1166, 1167, 1168, 1169, 1170, 1298
*Elset, elset=Set-Z1
    1,   11,   21,   31,   41,   51,   61,   71,   81,   91,  101,  111,  121,  131,  141,  151
  161,  171,  181,  191,  201,  211,  221,  231,  241,  251,  261,  271,  497,  498,  499,  500
  501,  502,  503,  504,  505,  506,  507,  508,  509,  510,  511,  512,  513,  514,  515,  516
  517,  518,  519,  520,  809,  810,  811,  812,  813,  814,  815,  816,  817,  818,  819,  820
  821,  822,  823,  824,  825,  826,  827,  828,  829,  830,  831,  832,  833,  834,  835,  836
  837,  838,  839,  840,  913,  914,  915,  916,  917,  918,  919,  920,  993,  994,  995,  996
  997,  998,  999, 1000, 1073, 1074, 1075, 1076, 1077, 1078, 1079, 1080, 1153, 1154, 1155, 1156
 1157, 1158, 1159, 1160, 1233, 1234, 1235, 1236, 1237, 1238, 1239, 1240, 1290, 1295, 1300, 1305
 1310, 1315, 1320, 1325, 1330, 1331, 1332, 1333, 1365, 1370, 1375, 1380, 1385, 1390, 1395, 1400
 1405, 1531, 1536, 1541, 1546, 1555, 1560, 1565, 1570, 1575, 1580, 1585, 1590, 1595, 1600, 1605
 1610, 1630, 1631, 1640
*Nset, nset=Set-Inner
    3,    4,    6,    7,   11,   12,   25,   26,   27,   28,   41,   42,   43,   44,   45,   46
   47,   48,   49,   65,   66,   67,   68,   69,   70,   71,   72,   73,   77,   78,   81,   82
   97,   98,   99,  100,  101,  102,  103,  104,  105,  109,  110,  111,  115,  116,  117,  281
  282,  283,  284,  285,  286,  287,  288,  289,  290,  291,  292,  293,  294,  295,  296,  297
  298,  299,  300,  301,  302,  303,  304,  305,  306,  307,  308,  309,  310,  311,  312,  313
  315,  316,  317,  318,  319,  320,  321,  322,  323,  324,  326,  411,  412,  413,  414,  415
  416,  417,  418,  419,  420,  421,  422,  423,  424,  425,  426,  427,  428,  501,  502,  503
  504,  505,  506,  507,  508,  509,  510,  511,  512,  513,  514,  515,  516,  517,  518,  519
  520,  521,  522,  523,  524,  525,  526,  527, 1171, 1172, 1173, 1174, 1175, 1176, 1177, 1178
 1179, 1180, 1181, 1182, 1183, 1184, 1185, 1186, 1187, 1188, 1189, 1190, 1191, 1192, 1193, 1194
 1195, 1196, 1197, 1198, 1199, 1200, 1201, 1202, 1203, 1204, 1205, 1206, 1207, 1208, 1209, 1210
 1211, 1212, 1213, 1214, 1215, 1216, 1217, 1218, 1219, 1220, 1221, 1222, 1223, 1224, 1225, 1226
 1227, 1228, 1229, 1230, 1231, 1232, 1233, 1234, 1235, 1236, 1237, 1238, 1239, 1240, 1241, 1242
 1243, 1244, 1245, 1246, 1247, 1248, 1249, 1250, 1251, 1252, 1253, 1254, 1255, 1256, 1257, 1258
 1259, 1260, 1261, 1262, 1263, 1264, 1265, 1266, 1267, 1268, 1269, 1270, 1271, 1272, 1273, 1274
 1275, 1276, 1277, 1278, 1289, 1290, 1291, 1292, 1293, 1294, 1295, 1296, 1297
*Elset, elset=Set-Inner
   31,   32,   33,   34,   35,   36,   37,   38,   39,   40,   71,   72,   73,   74,   75,   76
   77,   78,   79,   80,  111,  112,  113,  114,  115,  116,  117,  118,  119,  120,  151,  152
  153,  154,  155,  156,  157,  158,  159,  160,  191,  192,  193,  194,  195,  196,  197,  198
  199,  200,  231,  232,  233,  234,  235,  236,  237,  238,  239,  240,  271,  272,  273,  274
  275,  276,  277,  278,  279,  280, 1361, 1362, 1363, 1364, 1365, 1366, 1367, 1368, 1369, 1370
 1371, 1372, 1373, 1374, 1375, 1376, 1377, 1378, 1379, 1380, 1381, 1382, 1383, 1384, 1385, 1386
 1387, 1388, 1389, 1390, 1391, 1392, 1393, 1394, 1395, 1396, 1397, 1398, 1399, 1400, 1401, 1402
 1403, 1404, 1405, 1406, 1407, 1408, 1409, 1410, 1411, 1412, 1413, 1414, 1415, 1416, 1417, 1418
 1419, 1420, 1421, 1422, 1423, 1424, 1425, 1426, 1427, 1428, 1429, 1430, 1431, 1432, 1433, 1434
 1435, 1436, 1437, 1438, 1439, 1440, 1441, 1442, 1443, 1444, 1445, 1446, 1447, 1448, 1449, 1450
 1511, 1512, 1513, 1514, 1515, 1516, 1517, 1518, 1519, 1520, 1521, 1522, 1523, 1524, 1525, 1526
 1527, 1528, 1529, 1530, 1531, 1532, 1533, 1534, 1535, 1536, 1537, 1538, 1539, 1540, 1541, 1542
 1543, 1544, 1545, 1546, 1547, 1548, 1549, 1550, 1616, 1617, 1618, 1619, 1620, 1621, 1622, 1623
 1624, 1625, 1631, 1632, 1633, 1634, 1635, 1636, 1637, 1638, 1639, 1640
*Nset, nset=Set-All, generate
    1,  2189,     1
*Elset, elset=Set-All, generate
    1,  1640,     1
*End Part
**  
**
** ASSEMBLY
**
*Assembly, name=Assembly
**  
*Instance, name=Part-1-1, part=PART-1
*End Instance
**  
*End Assembly
*Amplitude, name=Amp-1
             0.,              0.,              1.,              1.
** 
** MATERIALS
** 
*Material, name=GRAIN
*Density
 1.73e-09,
*Elastic
115000., 0.3
*Material, name=Steel
*Density
 1.73e-09,
*Elastic
 2e+06, 0.3
