*Heading
** Job name: Job-1 Model name: Model-1
** Generated by: Abaqus/CAE 2020
*Preprint, echo=NO, model=NO, history=NO, contact=NO
**
** PARTS
**
*Part, name=PART-1
*Node
      1,          40.,           0.,           0.
      2,          40.,           0.,           5.
      3,          29.,           0.,           5.
      4,          29.,           0.,           0.
      5,          40.,          11.,           0.
      6,          40.,          11.,           5.
      7,          35.,          11.,           0.
      8,          35.,          11.,           5.
      9,          29.,           5.,           0.
     10,          29.,           5.,           5.
     11,          60.,           0.,           0.
     12,          60.,           0.,           5.
     13,          60.,          11.,           0.
     14,          60.,          11.,           5.
     15,           0.,           0.,           5.
     16,           0.,           5.,           5.
     17,           0.,           5.,           0.
     18,           0.,           0.,           0.
     19,   31.2000008,           0.,           0.
     20,   33.4000015,           0.,           0.
** ... 292 like lines cut
*Element, type=C3D8
 1, 148, 149, 275, 274,  20,  21, 141, 140
 2, 149, 150, 276, 275,  21,  22, 142, 141
 3, 150,  24, 144, 276,  22,   1,  23, 142
 4, 144,  32, 161, 276,  23,   2,  28, 142
 5, 276, 161, 162, 275, 142,  28,  29, 141
 6, 275, 162, 163, 274, 141,  29,  30, 140
 7, 163, 164, 277, 274,  30,  31, 143, 140
 8, 164,  37, 174, 277,  31,   3,  36, 143
 9, 174,  38, 151, 277,  36,   4,  19, 143
10, 277, 151, 148, 274, 143,  19,  20, 140
11, 150, 152, 281, 276,  24,  25, 145, 144
12, 152, 153, 282, 281,  25,  26, 146, 145
13, 153, 154, 283, 282,  26,  27, 147, 146
14, 154,  40, 175, 283,  27,   5,  39, 147
15, 149, 155, 284, 275, 150, 152, 281, 276
16, 155, 156, 285, 284, 152, 153, 282, 281
17, 156, 157, 286, 285, 153, 154, 283, 282
18, 157,  41, 176, 286, 154,  40, 175, 283
19, 148, 158, 280, 274, 149, 155, 284, 275
20, 158, 159, 279, 280, 155, 156, 285, 284
** ... 66 like lines cut
*Element, type=C3D8R
 87, 111, 246, 299, 218,  15,  80, 217,  83
 88, 246, 126, 232, 299,  80,  16,  81, 217
 89, 218, 299, 260,  84,  83, 217,  82,  18
 90, 299, 232, 125, 260, 217,  81,  17,  82
 91, 110, 247, 300, 219, 111, 246, 299, 218
 92, 247, 127, 233, 300, 246, 126, 232, 299
 93, 219, 300, 261,  85, 218, 299, 260,  84
 94, 300, 233, 124, 261, 299, 232, 125, 260
 95, 109, 248, 301, 220, 110, 247, 300, 219
 96, 248, 128, 234, 301, 247, 127, 233, 300
 97, 220, 301, 262,  86, 219, 300, 261,  85
 98, 301, 234, 123, 262, 300, 233, 124, 261
 99, 108, 249, 302, 221, 109, 248, 301, 220
100, 249, 129, 235, 302, 248, 128, 234, 301
101, 221, 302, 263,  87, 220, 301, 262,  86
102, 302, 235, 122, 263, 301, 234, 123, 262
103, 107, 250, 303, 222, 108, 249, 302, 221
104, 250, 130, 236, 303, 249, 129, 235, 302
105, 222, 303, 264,  88, 221, 302, 263,  87
106, 303, 236, 121, 264, 302, 235, 122, 263
** ... 40 like lines cut
*Nset, nset=Set-All, generate
   1,  312,    1
*Elset, elset=Set-All, generate
   1,  146,    1
*Nset, nset=Set-X0
  15,  16,  17,  18,  80,  81,  82,  83, 217
*Elset, elset=Set-X0, generate
 87,  90,   1
*Nset, nset=Set-Tensile
   7,   8,   9,  10,  46,  47,  48,  49,  50,  51,  52,  53,  54,  55,  56,  57
 178, 179, 180, 181, 182
*Elset, elset=Set-Tensile, generate
 35,  46,   1
*Nset, nset=Set-Origin
 18,
*Nset, nset=Set-Z0
   1,   4,   5,   7,   9,  11,  13,  17,  18,  19,  20,  21,  22,  24,  25,  26
  27,  38,  40,  41,  42,  47,  48,  49,  50,  51,  58,  59,  60,  65,  66,  67
  76,  77,  78,  79,  82,  84,  85,  86,  87,  88,  89,  90,  91,  92,  93,  94
  95,  96,  97, 112, 113, 114, 115, 116, 117, 118, 119, 120, 121, 122, 123, 124
 125, 148, 149, 150, 151, 152, 153, 154, 155, 156, 157, 158, 159, 160, 201, 202
 203, 204, 205, 206, 207, 208, 209, 210, 211, 212, 260, 261, 262, 263, 264, 265
 266, 267, 268, 269, 270, 271, 272, 273
*Elset, elset=Set-Z0
   1,   2,   3,   9,  10,  11,  12,  13,  14,  15,  16,  17,  18,  19,  20,  21
  22,  35,  36,  37,  38,  43,  44,  48,  50,  52,  54,  56,  58,  60,  62,  64
  66,  68,  70,  72,  74,  76,  78,  80,  82,  84,  86,  89,  90,  93,  94,  97
  98, 101, 102, 105, 106, 109, 110, 113, 114, 117, 118, 121, 122, 125, 126, 129
 130, 133, 134, 137, 138, 141, 142, 145, 146
*Nset, nset=Set-Y0
   1,   2,   3,   4,  11,  12,  15,  18,  19,  20,  21,  22,  23,  28,  29,  30
  31,  36,  58,  59,  60,  61,  62,  63,  64,  83,  84,  85,  86,  87,  88,  89
  90,  91,  92,  93,  94,  95,  96,  97,  98,  99, 100, 101, 102, 103, 104, 105
 106, 107, 108, 109, 110, 111, 140, 141, 142, 143, 183, 184, 185, 218, 219, 220
 221, 222, 223, 224, 225, 226, 227, 228, 229, 230, 231
*Elset, elset=Set-Y0
   1,   2,   3,   4,   5,   6,   7,   8,   9,  10,  47,  48,  49,  50,  51,  52
  53,  54,  87,  89,  91,  93,  95,  97,  99, 101, 103, 105, 107, 109, 111, 113
 115, 117, 119, 121, 123, 125, 127, 129, 131, 133, 135, 137, 139, 141, 143, 145
** Section: Section-1
*Solid Section, elset=Set-All, material=Ti-6Al-4V
10.,
*End Part
**  
**
** ASSEMBLY
**
*Assembly, name=Assembly
**  
*Instance, name=Part-1-1, part=PART-1
*End Instance
**  
*End Assembly
*Amplitude, name=Amp-1
             0.,              0.,              1.,              1.
** 
** MATERIALS
** 
*Material, name=Ti-6Al-4V
*Density
 4.43e-09,
*Elastic
115000., 0.343
*Plastic
 1161.5,      0.
 1198.5, 0.00985
 1231.9, 0.01961
 1262.6, 0.02927
 1289.4, 0.03884
 1313.3, 0.04832
 1332.7, 0.05771
  1350., 0.06701
** ----------------------------------------------------------------
** 
** STEP: Step-1
** 
*Step, name=Step-1, nlgeom=NO, inc=1000000
*Static
0.05, 1., 1e-06, 0.1
** 
** OUTPUT REQUESTS
** 
*Restart, write, frequency=0
** 
** FIELD OUTPUT: F-Output-1
** 
*Output, field, variable=PRESELECT, time interval=0.1
** 
** HISTORY OUTPUT: H-Output-1
** 
*Output, history, variable=PRESELECT
*End Step
